LAMMPS (24 Mar 2022)

# System init

units      metal
dimension  3
boundary   p p p
atom_style atomic
timestep   0.00025

# read data
read_restart equil.init
Reading restart file ...
  restart file = 24 Mar 2022, LAMMPS = 24 Mar 2022
  restoring atom style atomic from restart
  orthogonal box = (-0.54176883 -0.54176883 -0.14084408) to (101.44736 101.44736 26.373352)
  pair style hybrid/overlay stores no restart info
  26460 atoms
  read_restart CPU = 0.006 seconds

# pair potential

pair_style hybrid/overlay eam/alloy edip/multi
pair_coeff * * eam/alloy Mishin-Ni-Al-2009.eam.alloy Al NULL
pair_coeff * * edip/multi NiAlO.edip Al O

mass 2 15.999

# reporting
thermo_style custom step time temp pe epair etotal press vol lx ly lz spcpu cpuremain elapsed
thermo 100

dump   1 all atom 100 generic.lammpstrj

# Single point
min_style cg
minimize 1e-5 1e-5 10000 100000

CITE-CITE-CITE-CITE-CITE-CITE-CITE-CITE-CITE-CITE-CITE-CITE-CITE

Your simulation uses code contributions which should be cited:

- @article{cjiang2012
 author    = {Jian, Chao and Morgan, Dane, and Szlufarska, Izabella},
 title     = {Carbon tri-interstitial defect: A model for DII center},
 journal   = {Physical Review B},
 volume    = {86},
 pages     = {144118},
 year      = {2012},
}

@article{lpizzagalli2010,
 author    = {G. Lucas, M. Bertolus, and L. Pizzagalli},
 journal   = {J. Phys. : Condens. Matter 22},
 volume    = {22},
 pages     = {035802},
 year      = {2010},
}

CITE-CITE-CITE-CITE-CITE-CITE-CITE-CITE-CITE-CITE-CITE-CITE-CITE

Unused restart file global fix info:
  fix style: npt, fix ID: 1
  update every 1 steps, delay 0 steps, check yes
Step          Time           Temp          PotEng         E_pair         TotEng         Press          Volume           Lx             Ly             Lz           S/CPU         CPULeft       Elapsed
1094   0.2735         308.71479     -204160.02     -204160.02     -203104.19      118.02762      275794.87      101.98912      101.98912      26.514196      0              0                      0
Loop time of 3.62735 on 6 procs for 46 steps with 26460 atoms

Minimization stats:
  Stopping criterion = energy tolerance
  Energy initial, next-to-last, final =
  Force two-norm initial, final = 362.86247 40.393531
  Force max component initial, final = 10.224077 8.2840814
  Final line search alpha, max atom move = 0.0073804692 0.061140408
  Iterations, force evaluations = 46 92

# Thermalisation

velocity all create 300 1 mom yes rot no

fix 1 all npt temp 300 300 $(100.0*dt) iso 1.0 1.0 $(1000*dt)
fix 1 all npt temp 300 300 0.025000000000000001388 iso 1.0 1.0 $(1000*dt)
fix 1 all npt temp 300 300 0.025000000000000001388 iso 1.0 1.0 0.25

run  1000
Step          Time           Temp          PotEng         E_pair         TotEng         Press          Volume           Lx             Ly             Lz           S/CPU         CPULeft       Elapsed
1140   0              300           -205393.67     -205393.67     -204367.64     -10803.519      275794.87      101.98912      101.98912      26.514196      0              0                      0
Averages over the last 6 of 12 rows, steps 1700 to 2140:
Temp PotEng E_pair TotEng Press Volume Lx Ly Lz
279.29 -204544 -204544 -203589 1174.97 275704 101.978 101.978 26.5113
Loop time of 37.6126 on 6 procs for 1000 steps with 26460 atoms

write_restart equil.init
System init for write_restart ...
write_data    equil.data
System init for write_data ...
