LAMMPS (24 Mar 2022)

# System init

units      metal
dimension  3
boundary   p p p
atom_style atomic
timestep   0.00025

# read data
read_data combined.data
Reading data file ...
  orthogonal box = (0 0 0) to (100.34625 100.34625 90.105015)
  reading atoms ...
  68920 atoms

# pair potential

pair_style hybrid/overlay eam/alloy edip/multi
pair_coeff * * eam/alloy Mishin-Ni-Al-2009.eam.alloy Al Ni NULL
pair_coeff * * edip/multi NiAlO.edip Al Ni O

mass 3 15.999

# reporting
thermo_style custom step time temp pe epair etotal press vol lx ly lz spcpu cpuremain elapsed
thermo 100

dump   1 all atom 100 generic.lammpstrj

# Single point
min_style cg
minimize 1e-5 1e-5 10000 100000

CITE-CITE-CITE-CITE-CITE-CITE-CITE-CITE-CITE-CITE-CITE-CITE-CITE

Your simulation uses code contributions which should be cited:

- @article{cjiang2012
 author    = {Jian, Chao and Morgan, Dane, and Szlufarska, Izabella},
 title     = {Carbon tri-interstitial defect: A model for DII center},
 journal   = {Physical Review B},
 volume    = {86},
 pages     = {144118},
 year      = {2012},
}

@article{lpizzagalli2010,
 author    = {G. Lucas, M. Bertolus, and L. Pizzagalli},
 journal   = {J. Phys. : Condens. Matter 22},
 volume    = {22},
 pages     = {035802},
 year      = {2010},
}

CITE-CITE-CITE-CITE-CITE-CITE-CITE-CITE-CITE-CITE-CITE-CITE-CITE

  update every 1 steps, delay 0 steps, check yes
Step          Time           Temp          PotEng         E_pair         TotEng         Press          Volume           Lx             Ly             Lz           S/CPU         CPULeft       Elapsed
0   0              0              2533482        2533482        2533482        902219.87      907300.69      100.34625      100.34625      90.105015      0              0                      0
Loop time of 34.2129 on 6 procs for 227 steps with 68920 atoms

Minimization stats:
  Stopping criterion = energy tolerance
  Energy initial, next-to-last, final =
  Force two-norm initial, final = 1.2880244e+10 69.672367
  Force max component initial, final = 1.7454114e+08 23.65752
  Final line search alpha, max atom move = 0.010861381 0.25695334
  Iterations, force evaluations = 227 373

# Thermalisation

velocity all create 300 1 mom yes rot no

fix 1 all npt temp 300 300 $(100.0*dt) iso 1.0 1.0 $(1000*dt)
fix 1 all npt temp 300 300 0.025000000000000001388 iso 1.0 1.0 $(1000*dt)
fix 1 all npt temp 300 300 0.025000000000000001388 iso 1.0 1.0 0.25

run  10000
Step          Time           Temp          PotEng         E_pair         TotEng         Press          Volume           Lx             Ly             Lz           S/CPU         CPULeft       Elapsed
227   0              300           -477602.91     -477602.91     -474930.36      18095.546      907300.69      100.34625      100.34625      90.105015      0              0                      0
Averages over the last 51 of 102 rows, steps 5300 to 10227:
Temp PotEng E_pair TotEng Press Volume Lx Ly Lz
299.989 -478909 -478909 -476236 -61.0126 956626 102.131 102.131 91.7078
Loop time of 951.447 on 6 procs for 10000 steps with 68920 atoms

write_restart equil.init
System init for write_restart ...
write_data    equil.data
System init for write_data ...
