LAMMPS (24 Mar 2022)

# System init

units      metal
dimension  3
boundary   p p p
atom_style atomic
timestep   0.00025

# read data
read_data full_slab.data
Reading data file ...
  orthogonal box = (0 0 0) to (101.21739 101.21739 558.984)
  reading atoms ...
  442802 atoms

# pair potential
pair_style eam/alloy
pair_coeff * * Mishin-Ni-Al-2009.eam.alloy Ni Al

# reporting
thermo_style custom step time temp pe epair etotal press vol lx ly lz spcpu cpuremain elapsed
thermo 100

dump   1 all atom 100 generic.lammpstrj

# Single point
min_style cg
minimize 1e-5 1e-5 10000 100000
  update every 1 steps, delay 0 steps, check yes
Step          Time           Temp          PotEng         E_pair         TotEng         Press          Volume           Lx             Ly             Lz           S/CPU         CPULeft       Elapsed
0   0              0             -1198810.4     -1198810.4     -1198810.4      379720.89      5726768.3      101.21739      101.21739      558.984        0              0                      0
Averages over the last 7 of 13 rows, steps 600 to 1156:
Temp PotEng E_pair TotEng Press Volume Lx Ly Lz
0 -1.52281e+06 -1.52281e+06 -1.52281e+06 194047 5.72677e+06 101.217 101.217 558.984
Loop time of 354.374 on 6 procs for 1156 steps with 442802 atoms

Minimization stats:
  Stopping criterion = energy tolerance
  Energy initial, next-to-last, final =
  Force two-norm initial, final = 514.37393 15.353862
  Force max component initial, final = 4.3446607 1.423042
  Final line search alpha, max atom move = 0.05956645 0.084765561
  Iterations, force evaluations = 1156 1161

# Thermalisation

velocity all create 300 1 mom yes rot no

fix 1 all npt temp 300 300 $(100.0*dt) iso 1.0 1.0 $(1000*dt)
fix 1 all npt temp 300 300 0.025000000000000001388 iso 1.0 1.0 $(1000*dt)
fix 1 all npt temp 300 300 0.025000000000000001388 iso 1.0 1.0 0.25

run  5000
Step          Time           Temp          PotEng         E_pair         TotEng         Press          Volume           Lx             Ly             Lz           S/CPU         CPULeft       Elapsed
1156   0              300           -1529050.4     -1529050.4     -1511879.4      194781.37      5726768.3      101.21739      101.21739      558.984        0              0                      0
Averages over the last 26 of 52 rows, steps 3700 to 6156:
Temp PotEng E_pair TotEng Press Volume Lx Ly Lz
300.115 -1.58325e+06 -1.58325e+06 -1.56607e+06 -1.11017 7.04646e+06 108.461 108.461 598.99
Loop time of 1194.31 on 6 procs for 5000 steps with 442802 atoms

write_restart equil.init
System init for write_restart ...
write_data    equil.data
System init for write_data ...
