LAMMPS (24 Mar 2022)

# System init

units      metal
dimension  3
boundary   p p p
atom_style atomic
timestep   0.00025

# read data
read_data Al2O3_supercell.data
Reading data file ...
  orthogonal box = (0 0 0) to (100.90559 100.90559 26.232508)
  reading atoms ...
  26460 atoms

# pair potential

pair_style hybrid/overlay eam/alloy edip/multi
pair_coeff * * eam/alloy Mishin-Ni-Al-2009.eam.alloy Al NULL
pair_coeff * * edip/multi NiAlO.edip Al O

mass 2 15.999

# reporting
thermo_style custom step time temp pe epair etotal press vol lx ly lz spcpu cpuremain elapsed
thermo 100

dump   1 all atom 100 generic.lammpstrj

# Single point
min_style cg
minimize 1e-5 1e-5 10000 100000

CITE-CITE-CITE-CITE-CITE-CITE-CITE-CITE-CITE-CITE-CITE-CITE-CITE

Your simulation uses code contributions which should be cited:

- @article{cjiang2012
 author    = {Jian, Chao and Morgan, Dane, and Szlufarska, Izabella},
 title     = {Carbon tri-interstitial defect: A model for DII center},
 journal   = {Physical Review B},
 volume    = {86},
 pages     = {144118},
 year      = {2012},
}

@article{lpizzagalli2010,
 author    = {G. Lucas, M. Bertolus, and L. Pizzagalli},
 journal   = {J. Phys. : Condens. Matter 22},
 volume    = {22},
 pages     = {035802},
 year      = {2010},
}

CITE-CITE-CITE-CITE-CITE-CITE-CITE-CITE-CITE-CITE-CITE-CITE-CITE

  update every 1 steps, delay 0 steps, check yes
Step          Time           Temp          PotEng         E_pair         TotEng         Press          Volume           Lx             Ly             Lz           S/CPU         CPULeft       Elapsed
0   0              0              1032986.6      1032986.6      1032986.6      426653.26      267097.75      100.90559      100.90559      26.232508      0              0                      0
Loop time of 6.87527 on 6 procs for 94 steps with 26460 atoms

Minimization stats:
  Stopping criterion = energy tolerance
  Energy initial, next-to-last, final =
  Force two-norm initial, final = 9.096056e+09 150.70699
  Force max component initial, final = 1.7411329e+08 2.3101048
  Final line search alpha, max atom move = 0.023576318 0.054463765
  Iterations, force evaluations = 94 196

# Thermalisation

velocity all create 300 1 mom yes rot no

fix 1 all npt temp 300 300 $(100.0*dt) iso 1.0 1.0 $(1000*dt)
fix 1 all npt temp 300 300 0.025000000000000001388 iso 1.0 1.0 $(1000*dt)
fix 1 all npt temp 300 300 0.025000000000000001388 iso 1.0 1.0 0.25

run  100000
Step          Time           Temp          PotEng         E_pair         TotEng         Press          Volume           Lx             Ly             Lz           S/CPU         CPULeft       Elapsed
94   0              300           -203667.52     -203667.52     -202641.49      3789.7162      267097.75      100.90559      100.90559      26.232508      0              0                      0
Averages over the last 501 of 1002 rows, steps 50100 to 100094:
Temp PotEng E_pair TotEng Press Volume Lx Ly Lz
299.818 -205076 -205076 -204050 -46.3044 274857 101.873 101.873 26.4841
Loop time of 3716.42 on 6 procs for 100000 steps with 26460 atoms

write_restart equil.init
System init for write_restart ...
write_data    equil.data
System init for write_data ...
