LAMMPS (24 Mar 2022)

# System init

units      metal
dimension  3
boundary   p p p
atom_style atomic
timestep   0.00025

#

#variable a equal 4.064

#lattice         fcc $a
#region          box prism 0 10.0 0 10.0 0 10.0 0.0 0.0 0.0
#create_box      1 box
#create_atoms    1 box

read_data prep.data
Reading data file ...
  triclinic box = (-5.0830674 -5.0830674 -5.0830674) to (45.723067 45.723067 45.723067) with tilt (0 0 0)
  reading atoms ...
  4000 atoms
  reading velocities ...
  4000 velocities

# pair potential
pair_style eam/alloy
pair_coeff * *  Mishin-Ni-Al-2009.eam.alloy Al

# Single point
min_style cg
minimize 1e-8 1e-8 10000 100000
  update every 1 steps, delay 0 steps, check yes
Step          Temp          E_pair         E_mol          TotEng         Press
0   4908.1774     -9289.8705      0             -6752.7781      312.36137
Loop time of 14.1631 on 6 procs for 3717 steps with 4000 atoms

Minimization stats:
  Stopping criterion = energy tolerance
  Energy initial, next-to-last, final =
  Force two-norm initial, final = 108.69441 0.031229578
  Force max component initial, final = 4.897472 0.0098131576
  Final line search alpha, max atom move = 1 0.0098131576
  Iterations, force evaluations = 3717 6157

# Thermalisation
dump   1 all atom 1000 generic.lammpstrj
dump   2 all custom 1000 unwrapped.lammpstrj id type xu yu zu

velocity all create 5000 1 mom yes rot no
fix 1 all npt temp 5000 5000 $(100*dt) iso 1.0 1.0 $(1000*dt)
fix 1 all npt temp 5000 5000 0.025000000000000001388 iso 1.0 1.0 $(1000*dt)
fix 1 all npt temp 5000 5000 0.025000000000000001388 iso 1.0 1.0 0.25

thermo 1000

compute         msd all msd com yes
variable        twopoint equal c_msd[4]/6/(step*dt+1.0e-6)
fix             2  all vector 1 c_msd[4]
variable        fitslope equal slope(f_2)/6/(10*dt)

thermo_style custom step time temp press vol c_msd[4] v_twopoint v_fitslope

run  500000
Step          Time           Temp          Press          Volume        c_msd[4]      v_twopoint     v_fitslope
3717   0              5000           14001.961      131144.01      8.168418e-29   1.4650541e-29  6.6666667e+21
Averages over the last 251 of 502 rows, steps 254000 to 503717:
Temp Press Volume c_msd[4] v_twopoint v_fitslope
5004.22 128.75 131244 7090.14 12.4727 1.26195
Loop time of 685.145 on 6 procs for 500000 steps with 4000 atoms

write_restart checkpoint.init
System init for write_restart ...
ERROR on proc 0: Failed to reallocate -29728 bytes for array vector:vector (src/memory.cpp:105)
Last command: write_restart checkpoint.init
