LAMMPS (24 Mar 2022)

# System init

units      metal
dimension  3
boundary   p p p
atom_style atomic
timestep   0.00005

# read data
read_data Al2O3_trigonal_iter_last_lmp.data
Reading data file ...
  triclinic box = (0 0 0) to (14.415084 12.483828 13.116254) with tilt (-7.207542 0 0)
  reading atoms ...
  270 atoms
replicate 2 2 2
Replicating atoms ...
  triclinic box = (0 0 0) to (28.830168 24.967656 26.232508) with tilt (-14.415084 0 0)
  2160 atoms
  replicate CPU = 0.001 seconds

# pair potential

pair_style hybrid/overlay eam/alloy edip/multi
pair_coeff * * eam/alloy Mishin-Ni-Al-2009.eam.alloy Al NULL
pair_coeff * * edip/multi NiAlO.edip Al O

mass 2 15.999

# reporting
thermo_style custom step temp pe epair etotal press vol
thermo 100

dump   1 all atom 1000 generic.lammpstrj

# Single point
min_style hftn
minimize 1e-10 1e-10 10000 100000

CITE-CITE-CITE-CITE-CITE-CITE-CITE-CITE-CITE-CITE-CITE-CITE-CITE

Your simulation uses code contributions which should be cited:

- @article{cjiang2012
 author    = {Jian, Chao and Morgan, Dane, and Szlufarska, Izabella},
 title     = {Carbon tri-interstitial defect: A model for DII center},
 journal   = {Physical Review B},
 volume    = {86},
 pages     = {144118},
 year      = {2012},
}

@article{lpizzagalli2010,
 author    = {G. Lucas, M. Bertolus, and L. Pizzagalli},
 journal   = {J. Phys. : Condens. Matter 22},
 volume    = {22},
 pages     = {035802},
 year      = {2010},
}

CITE-CITE-CITE-CITE-CITE-CITE-CITE-CITE-CITE-CITE-CITE-CITE-CITE

  update every 1 steps, delay 0 steps, check yes
Step          Temp          PotEng         E_pair         TotEng         Press          Volume
0   0             -15902.603     -15902.603     -15902.603     -63400.131      18882.729
Loop time of 0.19337 on 6 procs for 3 steps with 2160 atoms

Minimization stats:
  Stopping criterion = energy tolerance
  Energy initial, next-to-last, final =
  Force two-norm initial, final = 61.640996 6.2397408e-07
  Force max component initial, final = 1.6011772 1.6232519e-08
  Final line search alpha, max atom move = 0 0
  Iterations, force evaluations = 3 44

# Thermalisation

velocity all create 300 1 mom yes rot no

fix 1 all npt temp 300 300 $(100*dt) iso 1.0 1.0 $(1000*dt)
fix 1 all npt temp 300 300 0.0050000000000000001041 iso 1.0 1.0 $(1000*dt)
fix 1 all npt temp 300 300 0.0050000000000000001041 iso 1.0 1.0 0.050000000000000002776

run  200000
Step          Temp          PotEng         E_pair         TotEng         Press          Volume
4   300           -15957.347     -15957.347     -15873.625     -42061.703      18882.729
Averages over the last 1001 of 2002 rows, steps 100100 to 200004:
Temp PotEng E_pair TotEng Press Volume
299.993 -15876.8 -15876.8 -15793.1 -4.03896 18729
Loop time of 606.817 on 6 procs for 200000 steps with 2160 atoms

write_restart checkpoint.init
System init for write_restart ...
write_data Al2O3_npt_equil.data
System init for write_data ...
