LAMMPS (24 Mar 2022)

# System init

units      metal
dimension  3
boundary   p p p
atom_style atomic
timestep   0.00005

# read data
read_data Al2O3_trigonal_iter_last_lmp.data
Reading data file ...
  triclinic box = (0 0 0) to (14.415084 12.483828 13.116254) with tilt (-7.207542 0 0)
  reading atoms ...
  270 atoms
replicate 2 2 2
Replicating atoms ...
  triclinic box = (0 0 0) to (28.830168 24.967656 26.232508) with tilt (-14.415084 0 0)
  2160 atoms
  replicate CPU = 0.001 seconds

# pair potential

pair_style hybrid/overlay eam/alloy edip/multi
pair_coeff * * eam/alloy Mishin-Ni-Al-2009.eam.alloy Al NULL
pair_coeff * * edip/multi NiAlO.edip Al O

mass 2 15.999

thermo 1000
thermo_style custom step temp pe etotal press vol

# reporting

dump   1 all atom 1000 generic.lammpstrj
dump   2 all custom 1000 unwrapped.lammpstrj id type xu yu zu

# Single point
min_style cg
minimize 1e-8 1e-8 10000 100000

CITE-CITE-CITE-CITE-CITE-CITE-CITE-CITE-CITE-CITE-CITE-CITE-CITE

Your simulation uses code contributions which should be cited:

- @article{cjiang2012
 author    = {Jian, Chao and Morgan, Dane, and Szlufarska, Izabella},
 title     = {Carbon tri-interstitial defect: A model for DII center},
 journal   = {Physical Review B},
 volume    = {86},
 pages     = {144118},
 year      = {2012},
}

@article{lpizzagalli2010,
 author    = {G. Lucas, M. Bertolus, and L. Pizzagalli},
 journal   = {J. Phys. : Condens. Matter 22},
 volume    = {22},
 pages     = {035802},
 year      = {2010},
}

CITE-CITE-CITE-CITE-CITE-CITE-CITE-CITE-CITE-CITE-CITE-CITE-CITE

  update every 1 steps, delay 0 steps, check yes
Step          Temp          PotEng         TotEng         Press          Volume
0   0             -15902.603     -15902.603     -63400.131      18882.729
Loop time of 0.0668638 on 6 procs for 7 steps with 2160 atoms

Minimization stats:
  Stopping criterion = energy tolerance
  Energy initial, next-to-last, final =
  Force two-norm initial, final = 61.640996 0.0012348526
  Force max component initial, final = 1.6011772 3.6862234e-05
  Final line search alpha, max atom move = 1 3.6862234e-05
  Iterations, force evaluations = 7 14

# Thermalisation

variable v equal vol

velocity all create 500 1 mom yes rot no
fix 1 all npt temp 500 4500 $(100*dt) iso 0.0 0.0 $(1000*dt)
fix 1 all npt temp 500 4500 0.0050000000000000001041 iso 0.0 0.0 $(1000*dt)
fix 1 all npt temp 500 4500 0.0050000000000000001041 iso 0.0 0.0 0.050000000000000002776
fix     2     all ave/time 1 1 1 c_thermo_temp file temp.dat
fix     3     all ave/time 1 1 1 v_v file vol.dat

run  2000000
Step          Temp          PotEng         TotEng         Press          Volume
7   500           -15957.347     -15817.81      -38902.149      18882.729
Averages over the last 1001 of 2002 rows, steps 1001000 to 2000007:
Temp PotEng TotEng Press Volume
3505.75 -15391.6 -14413.3 310.76 24567.6
Loop time of 7133.49 on 6 procs for 2000000 steps with 2160 atoms

write_restart checkpoint.init
System init for write_restart ...
write_data checkpoint.data
System init for write_data ...
