LAMMPS (24 Mar 2022)
package gpu 0

# Impact of  nanolaminate, 2.0 km/s.

# simulation construction

units      metal
dimension  3
boundary   p p p
atom_style atomic
region       left    block         -10.584117604368888  111.80150358380205 -10.582922399024174  111.80030837843097 0.0 307.84999999999997
region      right    block         -10.584117604368888  111.80150358380205 -10.582922399024174  111.80030837843097 307.84999999999997 615.6999999999999
thermo 1

# Read pre-thermalised data, reset timestep
read_data thermalise11.data
Reading data file ...
  orthogonal box = (-0.5841176 -0.5829224 0) to (101.8015 101.80031 615.7)
  reading atoms ...
  496594 atoms
  reading velocities ...
  496594 velocities
timestep   0.00025
reset_timestep 0

# Set potentials
pair_style eam/alloy
pair_coeff * * Mishin-Ni-Al-2009.eam.alloy Al Ni

# Thermodynamic acquire settings
thermo_style custom step time temp press pe ke etotal vol
thermo 100
dump    atomdump all atom 100 contract.lammpstrj
compute spatialbins all chunk/atom bin/1d z lower 0.01 ids every compress no units reduced
compute bintemps    all temp/chunk spatialbins temp com yes
compute ke all ke
fix     temp_bias          all ave/chunk 1 10 10 spatialbins temp bias bintemps file temp.bias.dat
fix     velocity_z         all ave/chunk 1 10 10 spatialbins vz file vz.dat
fix     velocity_z_highres all ave/chunk 1  1  1 spatialbins vz file hrvz.dat
fix     kinetic_energy     all ave/time 1 1 1 c_ke file ke.dat

# Set microcanonical ensemble
fix     microcanonical     all nve

# Thump dynamics
group          g_left      region left
266618 atoms in group g_left
group         g_right      region right
229976 atoms in group g_right
velocity       g_left      set   NULL NULL 10.0 units box sum yes
velocity      g_right      set  NULL NULL -10.0 units box sum yes
fix      box_contract      all deform 1 z vel -20.0 remap v units box
run 50000

CITE-CITE-CITE-CITE-CITE-CITE-CITE-CITE-CITE-CITE-CITE-CITE-CITE

Your simulation uses code contributions which should be cited:

- GPU package (short-range, long-range and three-body potentials):

@Article{Brown11,
 author = {W. M. Brown, P. Wang, S. J. Plimpton, A. N. Tharrington},
 title = {Implementing Molecular Dynamics on Hybrid High Performance Computers - Short Range Forces},
 journal = {Comp.~Phys.~Comm.},
 year =    2011,
 volume =  182,
 pages =   {898--911}
}

@Article{Brown12,
 author = {W. M. Brown, A. Kohlmeyer, S. J. Plimpton, A. N. Tharrington},
 title = {Implementing Molecular Dynamics on Hybrid High Performance Computers - Particle-Particle Particle-Mesh},
 journal = {Comp.~Phys.~Comm.},
 year =    2012,
 volume =  183,
 pages =   {449--459}
}

@Article{Brown13,
 author = {W. M. Brown, Y. Masako},
 title = {Implementing Molecular Dynamics on Hybrid High Performance Computers â€“ Three-Body Potentials},
 journal = {Comp.~Phys.~Comm.},
 year =    2013,
 volume =  184,
 pages =   {2785--2793}
}

@Article{Trung15,
 author = {T. D. Nguyen, S. J. Plimpton},
 title = {Accelerating dissipative particle dynamics simulations for soft matter systems},
 journal = {Comput.~Mater.~Sci.},
 year =    2015,
 volume =  100,
 pages =   {173--180}
}

@Article{Trung17,
 author = {T. D. Nguyen},
 title = {GPU-accelerated Tersoff potentials for massively parallel Molecular Dynamics simulations},
 journal = {Comp.~Phys.~Comm.},
 year =    2017,
 volume =  212,
 pages =   {113--122}
}

@Article{Nikolskiy19,
 author = {V. Nikolskiy, V. Stegailov},
 title = {GPU acceleration of four-site water models in LAMMPS},
 journal = {Proceeding of the International Conference on Parallel Computing (ParCo 2019), Prague, Czech Republic},
 year =    2019
}

CITE-CITE-CITE-CITE-CITE-CITE-CITE-CITE-CITE-CITE-CITE-CITE-CITE

Step          Time           Temp          Press          PotEng         KinEng         TotEng         Volume
0   0              2345.9243      21757.068     -2062685        150584.14     -1912100.8      6454118.8
Averages over the last 251 of 501 rows, steps 25000 to 50000:
Temp Press PotEng KinEng TotEng Volume
1729.44 799639 -1.72401e+06 111012 -1.61299e+06 4.48864e+06
Loop time of 2313.57 on 6 procs for 50000 steps with 496594 atoms
