LAMMPS (24 Mar 2022)

# System init

units      metal
dimension  3
boundary   p p p
atom_style atomic
timestep   0.00025

# read data
read_data NiO_supercell_iter_last_lmp.data
Reading data file ...
  orthogonal box = (0 0 0) to (12.649858 12.649858 12.649858)
  reading atoms ...
  216 atoms
replicate 2 2 2
Replicating atoms ...
  orthogonal box = (0 0 0) to (25.299717 25.299717 25.299717)
  1728 atoms
  replicate CPU = 0.001 seconds

# pair potential

pair_style hybrid/overlay eam/alloy edip/multi
pair_coeff * * eam/alloy Mishin-Ni-Al-2009.eam.alloy Ni NULL
pair_coeff * * edip/multi NiAlO.edip Ni O

mass 2 15.999

dump   1 all atom 1000 generic.lammpstrj

# reporting
thermo_style custom step temp pe epair etotal press vol
thermo 100

# Single point
min_style hftn
minimize 1e-10 1e-10 10000 100000

CITE-CITE-CITE-CITE-CITE-CITE-CITE-CITE-CITE-CITE-CITE-CITE-CITE

Your simulation uses code contributions which should be cited:

- @article{cjiang2012
 author    = {Jian, Chao and Morgan, Dane, and Szlufarska, Izabella},
 title     = {Carbon tri-interstitial defect: A model for DII center},
 journal   = {Physical Review B},
 volume    = {86},
 pages     = {144118},
 year      = {2012},
}

@article{lpizzagalli2010,
 author    = {G. Lucas, M. Bertolus, and L. Pizzagalli},
 journal   = {J. Phys. : Condens. Matter 22},
 volume    = {22},
 pages     = {035802},
 year      = {2010},
}

CITE-CITE-CITE-CITE-CITE-CITE-CITE-CITE-CITE-CITE-CITE-CITE-CITE

  update every 1 steps, delay 0 steps, check yes
Step          Temp          PotEng         E_pair         TotEng         Press          Volume
0   0             -8921.847      -8921.847      -8921.847       22025.076      16193.733
Loop time of 11.0554 on 6 procs for 79 steps with 1728 atoms

Minimization stats:
  Stopping criterion = energy tolerance
  Energy initial, next-to-last, final =
  Force two-norm initial, final = 0.00039135212 3.2340586e-07
  Force max component initial, final = 8.7814039e-06 4.2049791e-08
  Final line search alpha, max atom move = 0 0
  Iterations, force evaluations = 79 3922

# Thermalisation

velocity all create 300 1 mom yes rot no

#dump   1 all atom 10 generic.dump
fix 1 all npt temp 300 300 $(100*dt) iso 1.0 1.0 $(1000*dt)
fix 1 all npt temp 300 300 0.025000000000000001388 iso 1.0 1.0 $(1000*dt)
fix 1 all npt temp 300 300 0.025000000000000001388 iso 1.0 1.0 0.25
run 200000
Step          Temp          PotEng         E_pair         TotEng         Press          Volume
80   300           -12061.344     -12061.344     -11994.374     -276514.35      16193.733
Averages over the last 1001 of 2002 rows, steps 100100 to 200080:
Temp PotEng E_pair TotEng Press Volume
300.043 -12202.3 -12202.3 -12135.3 -592.289 14574.4
Loop time of 695.033 on 6 procs for 200000 steps with 1728 atoms

write_restart checkpoint.init
System init for write_restart ...
write_data NiO_npt_equil.data
System init for write_data ...
