LAMMPS (24 Mar 2022)
package gpu 0
# Impact of NiAl nanolaminate, 4 km/s.

# simulation construction

units      metal
dimension  3
boundary   p p p
atom_style atomic

region       left    block         0.0  257.0    0.0 200 0.0 200
region      right    block             257.0  516  0.0 200 0.0 200

thermo 1

# Read pre-thermalised data, reset timestep
read_restart bilayer-nial09-thermalised.init
Reading restart file ...
  restart file = 24 Mar 2022, LAMMPS = 24 Mar 2022
  restoring atom style atomic from restart
  orthogonal box = (1.0227931 0.19898699 0.19898699) to (512.97721 99.801013 99.801013)
  pair style eam/alloy/gpu stores no restart info
  397994 atoms
  read_restart CPU = 0.056 seconds
timestep   0.001
reset_timestep 0

# Set potentials
pair_style eam/alloy
pair_coeff * * Mishin-Ni-Al-2009.eam.alloy Ni Al

# Thermodynamic acquire settings
thermo_style custom step time temp press pe ke etotal vol
thermo 100
dump    atomdump all atom 100 run.lammpstrj

compute spatialbins all chunk/atom bin/1d x lower 0.01 ids every compress no units reduced
compute bintemps    all temp/chunk spatialbins temp com yes
compute ke all ke
compute temp all temp

fix     temp_bias          all ave/chunk 1 10 10 spatialbins temp bias bintemps file temp.bias.dat
fix     velocity_x         all ave/chunk 1 10 10 spatialbins vx file vx.dat
fix     velocity_x_highres all ave/chunk 1  1  1 spatialbins vx file hrvx.dat
fix     kinetic_energy     all ave/time 1 1 1 c_ke file ke.dat
fix     temp               all ave/time 1 1 1 c_temp file temp.dat
# Set microcanonical ensemble
fix     microcanonical     all nve

# Thump dynamics
group          g_left      region left
199389 atoms in group g_left
group         g_right      region right
198605 atoms in group g_right
velocity       g_left      set  20 NULL NULL units box sum yes
velocity      g_right      set -20 NULL NULL units box sum yes
fix      box_contract      all deform 1 x vel -40 remap v units box
run  3798

CITE-CITE-CITE-CITE-CITE-CITE-CITE-CITE-CITE-CITE-CITE-CITE-CITE

Your simulation uses code contributions which should be cited:

- GPU package (short-range, long-range and three-body potentials):

@Article{Brown11,
 author = {W. M. Brown, P. Wang, S. J. Plimpton, A. N. Tharrington},
 title = {Implementing Molecular Dynamics on Hybrid High Performance Computers - Short Range Forces},
 journal = {Comp.~Phys.~Comm.},
 year =    2011,
 volume =  182,
 pages =   {898--911}
}

@Article{Brown12,
 author = {W. M. Brown, A. Kohlmeyer, S. J. Plimpton, A. N. Tharrington},
 title = {Implementing Molecular Dynamics on Hybrid High Performance Computers - Particle-Particle Particle-Mesh},
 journal = {Comp.~Phys.~Comm.},
 year =    2012,
 volume =  183,
 pages =   {449--459}
}

@Article{Brown13,
 author = {W. M. Brown, Y. Masako},
 title = {Implementing Molecular Dynamics on Hybrid High Performance Computers â€“ Three-Body Potentials},
 journal = {Comp.~Phys.~Comm.},
 year =    2013,
 volume =  184,
 pages =   {2785--2793}
}

@Article{Trung15,
 author = {T. D. Nguyen, S. J. Plimpton},
 title = {Accelerating dissipative particle dynamics simulations for soft matter systems},
 journal = {Comput.~Mater.~Sci.},
 year =    2015,
 volume =  100,
 pages =   {173--180}
}

@Article{Trung17,
 author = {T. D. Nguyen},
 title = {GPU-accelerated Tersoff potentials for massively parallel Molecular Dynamics simulations},
 journal = {Comp.~Phys.~Comm.},
 year =    2017,
 volume =  212,
 pages =   {113--122}
}

@Article{Nikolskiy19,
 author = {V. Nikolskiy, V. Stegailov},
 title = {GPU acceleration of four-site water models in LAMMPS},
 journal = {Proceeding of the International Conference on Parallel Computing (ParCo 2019), Prague, Czech Republic},
 year =    2019
}

CITE-CITE-CITE-CITE-CITE-CITE-CITE-CITE-CITE-CITE-CITE-CITE-CITE

Unused restart file global fix info:
  fix style: npt/gpu, fix ID: 1
Step          Time           Temp          Press          PotEng         KinEng         TotEng         Volume
0   0              8126.939       84716.065     -1653459.2      418087.4      -1235371.8      5078876.3
Averages over the last 20 of 39 rows, steps 1900 to 3798:
Temp Press PotEng KinEng TotEng Volume
3472.73 529610 -1.40594e+06 178653 -1.22728e+06 3.94797e+06
Loop time of 142.274 on 6 procs for 3798 steps with 397994 atoms

unfix box_contract
run 96202
Step          Time           Temp          Press          PotEng         KinEng         TotEng         Volume
3798   3.798          1972.6603      767227.26     -1293196.4      101482.78     -1191713.6      3571744.3
Averages over the last 482 of 964 rows, steps 51900 to 100000:
Temp Press PotEng KinEng TotEng Volume
3555.98 710545 -1.37456e+06 182936 -1.19162e+06 3.57174e+06
Loop time of 4169.98 on 6 procs for 96202 steps with 397994 atoms
