LAMMPS (24 Mar 2022)

# System init

units      metal
dimension  3
boundary   p p p
atom_style atomic
timestep   0.00025

# read data
read_data combined_cells.data
Reading data file ...
  orthogonal box = (0 0 0) to (100.90559 100.90559 72.465015)
  reading atoms ...
  52920 atoms

# pair potential

pair_style hybrid/overlay eam/alloy edip/multi
pair_coeff * * eam/alloy Mishin-Ni-Al-2009.eam.alloy Al NULL
pair_coeff * * edip/multi NiAlO.edip Al O

mass 2 15.999

# reporting
thermo_style custom step time temp pe epair etotal press vol lx ly lz spcpu cpuremain elapsed
thermo 100

dump   1 all atom 100 generic.lammpstrj

# Single point
min_style cg
minimize 1e-5 1e-5 10000 100000

CITE-CITE-CITE-CITE-CITE-CITE-CITE-CITE-CITE-CITE-CITE-CITE-CITE

Your simulation uses code contributions which should be cited:

- @article{cjiang2012
 author    = {Jian, Chao and Morgan, Dane, and Szlufarska, Izabella},
 title     = {Carbon tri-interstitial defect: A model for DII center},
 journal   = {Physical Review B},
 volume    = {86},
 pages     = {144118},
 year      = {2012},
}

@article{lpizzagalli2010,
 author    = {G. Lucas, M. Bertolus, and L. Pizzagalli},
 journal   = {J. Phys. : Condens. Matter 22},
 volume    = {22},
 pages     = {035802},
 year      = {2010},
}

CITE-CITE-CITE-CITE-CITE-CITE-CITE-CITE-CITE-CITE-CITE-CITE-CITE

  update every 1 steps, delay 0 steps, check yes
Step          Time           Temp          PotEng         E_pair         TotEng         Press          Volume           Lx             Ly             Lz           S/CPU         CPULeft       Elapsed
0   0              0              2075809.8      2075809.8      2075809.8      187325.57      737834.26      100.90559      100.90559      72.465015      0              0                      0
Loop time of 10.8958 on 6 procs for 75 steps with 52920 atoms

Minimization stats:
  Stopping criterion = energy tolerance
  Energy initial, next-to-last, final =
  Force two-norm initial, final = 1.2863766e+10 363.43259
  Force max component initial, final = 1.7411329e+08 7.3216635
  Final line search alpha, max atom move = 0.0076512701 0.056020025
  Iterations, force evaluations = 75 150

# Thermalisation

velocity all create 300 1 mom yes rot no

fix 1 all npt temp 300 300 $(100.0*dt) iso 1.0 1.0 $(1000*dt)
fix 1 all npt temp 300 300 0.025000000000000001388 iso 1.0 1.0 $(1000*dt)
fix 1 all npt temp 300 300 0.025000000000000001388 iso 1.0 1.0 0.25

run  10000
Step          Time           Temp          PotEng         E_pair         TotEng         Press          Volume           Lx             Ly             Lz           S/CPU         CPULeft       Elapsed
75   0              300           -400136.19     -400136.19     -398084.09     -25488.278      737834.26      100.90559      100.90559      72.465015      0              0                      0
Averages over the last 51 of 102 rows, steps 5100 to 10075:
Temp PotEng E_pair TotEng Press Volume Lx Ly Lz
299.831 -407717 -407717 -405666 102.324 748231 101.377 101.377 72.8036
Loop time of 745.84 on 6 procs for 10000 steps with 52920 atoms

write_restart equil.init
System init for write_restart ...
write_data    equil.data
System init for write_data ...
