LAMMPS (24 Mar 2022)

# System init

units      metal
dimension  3
boundary   p p p
atom_style atomic
timestep   0.00025

# read data
read_data NiO_supercell_iter_last_lmp.data
Reading data file ...
  orthogonal box = (0 0 0) to (12.649858 12.649858 12.649858)
  reading atoms ...
  216 atoms
replicate 2 2 2
Replicating atoms ...
  orthogonal box = (0 0 0) to (25.299717 25.299717 25.299717)
  1728 atoms
  replicate CPU = 0.001 seconds

# pair potential

pair_style hybrid/overlay eam/alloy edip/multi
pair_coeff * * eam/alloy Mishin-Ni-Al-2009.eam.alloy Ni NULL
pair_coeff * * edip/multi NiAlO.edip Ni O

mass 2 15.999

thermo 1000
thermo_style custom step temp pe etotal press vol

# reporting

dump   1 all atom 1000 generic.lammpstrj
dump   2 all custom 1000 unwrapped.lammpstrj id type xu yu zu

# Single point
min_style cg
minimize 1e-8 1e-8 10000 100000

CITE-CITE-CITE-CITE-CITE-CITE-CITE-CITE-CITE-CITE-CITE-CITE-CITE

Your simulation uses code contributions which should be cited:

- @article{cjiang2012
 author    = {Jian, Chao and Morgan, Dane, and Szlufarska, Izabella},
 title     = {Carbon tri-interstitial defect: A model for DII center},
 journal   = {Physical Review B},
 volume    = {86},
 pages     = {144118},
 year      = {2012},
}

@article{lpizzagalli2010,
 author    = {G. Lucas, M. Bertolus, and L. Pizzagalli},
 journal   = {J. Phys. : Condens. Matter 22},
 volume    = {22},
 pages     = {035802},
 year      = {2010},
}

CITE-CITE-CITE-CITE-CITE-CITE-CITE-CITE-CITE-CITE-CITE-CITE-CITE

  update every 1 steps, delay 0 steps, check yes
Step          Temp          PotEng         TotEng         Press          Volume
0   0             -8921.847      -8921.847       22025.076      16193.733
Loop time of 0.00616116 on 6 procs for 1 steps with 1728 atoms

Minimization stats:
  Stopping criterion = energy tolerance
  Energy initial, next-to-last, final =
  Force two-norm initial, final = 0.00039135212 0.015068634
  Force max component initial, final = 8.7814039e-06 0.00031151521
  Final line search alpha, max atom move = 1 0.00031151521
  Iterations, force evaluations = 1 1

# Thermalisation

variable v equal vol

velocity all create 500 1 mom yes rot no
fix 1 all npt temp 500 4500 $(100*dt) iso 0.0 0.0 $(1000*dt)
fix 1 all npt temp 500 4500 0.025000000000000001388 iso 0.0 0.0 $(1000*dt)
fix 1 all npt temp 500 4500 0.025000000000000001388 iso 0.0 0.0 0.25
fix     2     all ave/time 1 1 1 c_thermo_temp file temp.dat
fix     3     all ave/time 1 1 1 v_v file vol.dat

run  2000000
Step          Temp          PotEng         TotEng         Press          Volume
1   500           -8921.847      -8810.2308      29387.132      16193.733
Averages over the last 1001 of 2002 rows, steps 1001000 to 2000001:
Temp PotEng TotEng Press Volume
3500.48 -10794.8 -10013.4 1345.81 15026.9
Loop time of 8273.45 on 6 procs for 2000000 steps with 1728 atoms

write_restart checkpoint.init
System init for write_restart ...
write_data checkpoint.data
System init for write_data ...
