LAMMPS (24 Mar 2022)

# System init

units      metal
dimension  3
boundary   p p p
atom_style atomic
timestep   0.00050

# read data
read_data full_slab.data
Reading data file ...
  orthogonal box = (0 0 0) to (101.29907 101.29907 556.83251)
  reading atoms ...
  452112 atoms

# pair potential

pair_style hybrid/overlay eam/alloy edip/multi
pair_coeff * * eam/alloy Mishin-Ni-Al-2009.eam.alloy Al Ni NULL
pair_coeff * * edip/multi NiAlO.edip Al Ni O

mass 3 15.999

# reporting
thermo_style custom step time temp pe epair etotal press vol lx ly lz spcpu cpuremain elapsed
thermo 100

dump   1 all atom 100 generic.lammpstrj

# Single point
min_style cg
minimize 1e-5 1e-5 10000 100000

CITE-CITE-CITE-CITE-CITE-CITE-CITE-CITE-CITE-CITE-CITE-CITE-CITE

Your simulation uses code contributions which should be cited:

- @article{cjiang2012
 author    = {Jian, Chao and Morgan, Dane, and Szlufarska, Izabella},
 title     = {Carbon tri-interstitial defect: A model for DII center},
 journal   = {Physical Review B},
 volume    = {86},
 pages     = {144118},
 year      = {2012},
}

@article{lpizzagalli2010,
 author    = {G. Lucas, M. Bertolus, and L. Pizzagalli},
 journal   = {J. Phys. : Condens. Matter 22},
 volume    = {22},
 pages     = {035802},
 year      = {2010},
}

CITE-CITE-CITE-CITE-CITE-CITE-CITE-CITE-CITE-CITE-CITE-CITE-CITE

  update every 1 steps, delay 0 steps, check yes
Step          Time           Temp          PotEng         E_pair         TotEng         Press          Volume           Lx             Ly             Lz           S/CPU         CPULeft       Elapsed
0   0              0             -721934.35     -721934.35     -721934.35      22127.173      5713937.2      101.29907      101.29907      556.83251      0              0                      0
Loop time of 118.359 on 6 procs for 161 steps with 452112 atoms

Minimization stats:
  Stopping criterion = energy tolerance
  Energy initial, next-to-last, final =
  Force two-norm initial, final = 9.0878461e+09 89.339149
  Force max component initial, final = 1.7381212e+08 14.964314
  Final line search alpha, max atom move = 0.0081401328 0.1218115
  Iterations, force evaluations = 161 286

# Thermalisation

velocity all create 300 1 mom yes rot no

fix 1 all npt temp 300 300 $(100.0*dt) iso 1.0 1.0 $(1000*dt)
fix 1 all npt temp 300 300 0.050000000000000002776 iso 1.0 1.0 $(1000*dt)
fix 1 all npt temp 300 300 0.050000000000000002776 iso 1.0 1.0 0.5

run  5000
Step          Time           Temp          PotEng         E_pair         TotEng         Press          Volume           Lx             Ly             Lz           S/CPU         CPULeft       Elapsed
161   0              300           -1989172.7     -1989172.7     -1971640.7      5029.1229      5713937.2      101.29907      101.29907      556.83251      0              0                      0
Averages over the last 26 of 52 rows, steps 2700 to 5161:
Temp PotEng E_pair TotEng Press Volume Lx Ly Lz
299.869 -1.97362e+06 -1.97362e+06 -1.9561e+06 37.4952 5.77245e+06 101.644 101.644 558.727
Loop time of 2177.22 on 6 procs for 5000 steps with 452112 atoms

write_restart equil.init
System init for write_restart ...
write_data    equil.data
System init for write_data ...
