LAMMPS (24 Mar 2022)
package gpu 0

# System init

units      metal
dimension  3
boundary   p p p
atom_style atomic
timestep   0.00025

#

variable a equal 4.064

lattice         fcc $a
lattice         fcc 4.064
Lattice spacing in x,y,z = 4.064 4.064 4.064
region          box prism 0 10.0 0 10.0 0 10.0 0.0 0.0 0.0
create_box      1 box
Created triclinic box = (0 0 0) to (40.64 40.64 40.64) with tilt (0 0 0)
create_atoms    1 box
Created 4000 atoms

# pair potential
pair_style eam/alloy
pair_coeff * *  Mishin-Ni-Al-2009.eam.alloy Al

thermo 1000
thermo_style custom step temp pe etotal press vol

# reporting

dump   1 all atom 1000 generic.lammpstrj
dump   2 all custom 1000 unwrapped.lammpstrj id type xu yu zu

# Single point
min_style cg
minimize 1e-8 1e-8 10000 100000

CITE-CITE-CITE-CITE-CITE-CITE-CITE-CITE-CITE-CITE-CITE-CITE-CITE

Your simulation uses code contributions which should be cited:

- GPU package (short-range, long-range and three-body potentials):

@Article{Brown11,
 author = {W. M. Brown, P. Wang, S. J. Plimpton, A. N. Tharrington},
 title = {Implementing Molecular Dynamics on Hybrid High Performance Computers - Short Range Forces},
 journal = {Comp.~Phys.~Comm.},
 year =    2011,
 volume =  182,
 pages =   {898--911}
}

@Article{Brown12,
 author = {W. M. Brown, A. Kohlmeyer, S. J. Plimpton, A. N. Tharrington},
 title = {Implementing Molecular Dynamics on Hybrid High Performance Computers - Particle-Particle Particle-Mesh},
 journal = {Comp.~Phys.~Comm.},
 year =    2012,
 volume =  183,
 pages =   {449--459}
}

@Article{Brown13,
 author = {W. M. Brown, Y. Masako},
 title = {Implementing Molecular Dynamics on Hybrid High Performance Computers â€“ Three-Body Potentials},
 journal = {Comp.~Phys.~Comm.},
 year =    2013,
 volume =  184,
 pages =   {2785--2793}
}

@Article{Trung15,
 author = {T. D. Nguyen, S. J. Plimpton},
 title = {Accelerating dissipative particle dynamics simulations for soft matter systems},
 journal = {Comput.~Mater.~Sci.},
 year =    2015,
 volume =  100,
 pages =   {173--180}
}

@Article{Trung17,
 author = {T. D. Nguyen},
 title = {GPU-accelerated Tersoff potentials for massively parallel Molecular Dynamics simulations},
 journal = {Comp.~Phys.~Comm.},
 year =    2017,
 volume =  212,
 pages =   {113--122}
}

@Article{Nikolskiy19,
 author = {V. Nikolskiy, V. Stegailov},
 title = {GPU acceleration of four-site water models in LAMMPS},
 journal = {Proceeding of the International Conference on Parallel Computing (ParCo 2019), Prague, Czech Republic},
 year =    2019
}

CITE-CITE-CITE-CITE-CITE-CITE-CITE-CITE-CITE-CITE-CITE-CITE-CITE

  update every 1 steps, delay 0 steps, check yes
Step          Temp          PotEng         TotEng         Press          Volume
0   0             -13438.249     -13438.249     -8063.7571      67121.414
Loop time of 0.00932099 on 6 procs for 1 steps with 4000 atoms

Minimization stats:
  Stopping criterion = energy tolerance
  Energy initial, next-to-last, final =
  Force two-norm initial, final = 0.00045022263 0.00045022263
  Force max component initial, final = 1.0089017e-05 1.0089017e-05
  Final line search alpha, max atom move = 0.5 5.0445087e-06
  Iterations, force evaluations = 1 4

# Thermalisation

variable v equal vol

velocity all create 500 1 mom yes rot no
fix 1 all npt temp 500 1500 $(100*dt) iso 0.0 0.0 $(1000*dt)
fix 1 all npt temp 500 1500 0.025000000000000001388 iso 0.0 0.0 $(1000*dt)
fix 1 all npt temp 500 1500 0.025000000000000001388 iso 0.0 0.0 0.25
fix     2     all ave/time 1 1 1 c_thermo_temp file temp.dat
fix     3     all ave/time 1 1 1 v_v file vol.dat

run  500000
Step          Temp          PotEng         TotEng         Press          Volume
1   500           -13438.249     -13179.794     -3950.8807      67121.414
Averages over the last 251 of 502 rows, steps 251000 to 500001:
Temp PotEng TotEng Press Volume
1249.61 -12545.2 -11899.2 75.9064 72941.8
Loop time of 600.874 on 6 procs for 500000 steps with 4000 atoms

write_restart checkpoint.init
System init for write_restart ...
write_data checkpoint.data
System init for write_data ...
