LAMMPS (24 Mar 2022)

# System init

units      metal
dimension  3
boundary   p p p
atom_style atomic
timestep   0.00025

#

variable a equal 4.064

lattice         fcc $a
lattice         fcc 4.064
Lattice spacing in x,y,z = 4.064 4.064 4.064
region          box prism 0 10.0 0 10.0 0 10.0 0.0 0.0 0.0
create_box      1 box
Created triclinic box = (0 0 0) to (40.64 40.64 40.64) with tilt (0 0 0)
create_atoms    1 box
Created 4000 atoms

# pair potential
pair_style eam/alloy
pair_coeff * *  Mishin-Ni-Al-2009.eam.alloy Al

thermo 1000
thermo_style custom step temp pe etotal press vol

# reporting

dump   1 all atom 1000 generic.lammpstrj
dump   2 all custom 1000 unwrapped.lammpstrj id type xu yu zu

# Single point
min_style cg
minimize 1e-8 1e-8 10000 100000
  update every 1 steps, delay 0 steps, check yes
Step          Temp          PotEng         TotEng         Press          Volume
0   0             -13438.249     -13438.249     -8063.7776      67121.414
Loop time of 0.00615534 on 6 procs for 1 steps with 4000 atoms

Minimization stats:
  Stopping criterion = energy tolerance
  Energy initial, next-to-last, final =
  Force two-norm initial, final = 1.4465452e-12 9.2991612e-13
  Force max component initial, final = 3.5402237e-14 1.9192981e-14
  Final line search alpha, max atom move = 1 1.9192981e-14
  Iterations, force evaluations = 1 2

# Thermalisation

variable v equal vol

velocity all create 500 1 mom yes rot no
fix 1 all npt temp 500 1500 $(100*dt) iso 1.0 1.0 $(1000*dt)
fix 1 all npt temp 500 1500 0.025000000000000001388 iso 1.0 1.0 $(1000*dt)
fix 1 all npt temp 500 1500 0.025000000000000001388 iso 1.0 1.0 0.25
fix     2     all ave/time 1 1 1 c_thermo_temp file temp.dat
fix     3     all ave/time 1 1 1 v_v file vol.dat

run  1000000
Step          Temp          PotEng         TotEng         Press          Volume
1   500           -13438.249     -13179.794     -3950.9164      67121.414
Averages over the last 501 of 1002 rows, steps 501000 to 1000001:
Temp PotEng TotEng Press Volume
1251.12 -12528.2 -11881.5 25.6553 73138
Loop time of 1819.5 on 6 procs for 1000000 steps with 4000 atoms

write_restart checkpoint.init
System init for write_restart ...
write_data checkpoint.data
System init for write_data ...
