LAMMPS (24 Mar 2022)
package gpu 0
################################################################################
# LAMMPS input file                                                            #
#                                                                              #
# Attempted recreation of approximate setup of Zhao, et al.                    #
# Using nial09 eam, impactor at uP = 3 km/s                                    #
#                                                                              #
# richard terrett, 2018                                                        #
#                                                                              #
################################################################################

# variables

variable al_fcc_a equal 4.064
variable ni_fcc_a equal 3.528
variable v_up     equal 30
variable    box_x equal 514.00
variable   box_yz equal 100
variable  half_yz equal 100/2
variable void_radius equal 20

# simulation construction

units      metal
dimension  3
boundary   p p p
atom_style atomic
timestep   0.001

# lattice construction

region       simulation_box block 0.00   514 0.00 100 0.00 100
create_box 2 simulation_box
Created orthogonal box = (0 0 0) to (514 100 100)
region       al_a    block          0.00  14.00 0.00 100 0.00 100
region       ni_a    block         14.00  70.00 0.00 100 0.00 100
region       al_b    block         70.00  98.00 0.00 100 0.00 100
region       ni_b    block         98.00 154.00 0.00 100 0.00 100
region       al_c    block        154.00 182.00 0.00 100 0.00 100
region       ni_c    block        182.00 238.00 0.00 100 0.00 100
region       al_d    block        238.00 252.00 0.00 100 0.00 100
region       void    block        252.00 262.00 0.00 100 0.00 100
region       al_w    block        262.00 276.00 0.00 100 0.00 100
region       ni_w    block        276.00 332.00 0.00 100 0.00 100
region       al_x    block        332.00 360.00 0.00 100 0.00 100
region       ni_x    block        360.00 416.00 0.00 100 0.00 100
region       al_y    block        416.00 444.00 0.00 100 0.00 100
region       ni_y    block        444.00 500.00 0.00 100 0.00 100
region       al_z    block        500.00 514.00 0.00 100 0.00 100
region    chomp_b   sphere          84.0       50      50  20
region    chomp_c   sphere         168.0       50      50  20
region    chomp_x   sphere         346.0       50      50  20
region    chomp_y   sphere         430.0       50      50  20
region       left    block           0.0 257.00 0.0 200 0.0 200
region      right    block         257.0 514.00 0.0 200 0.0 200

lattice      fcc 3.528 orient x 1 1 1 orient y 1 -1 0 orient z 1 1 -2
Lattice spacing in x,y,z = 6.1106752 4.9893454 5.7611999
create_atoms 1 region ni_a
Created 52400 atoms
create_atoms 1 region ni_b
Created 50582 atoms
create_atoms 1 region ni_c
Created 50623 atoms
create_atoms 1 region ni_w
Created 50572 atoms
create_atoms 1 region ni_x
Created 52486 atoms
create_atoms 1 region ni_y
Created 52375 atoms
lattice      fcc 4.064 orient x 1 1 1 orient y 1 -1 0 orient z 1 1 -2
Lattice spacing in x,y,z = 7.0390545 5.7473639 6.6364842
create_atoms 2 region al_a
Created 8102 atoms
create_atoms 2 region al_b
Created 16926 atoms
create_atoms 2 region al_c
Created 16910 atoms
create_atoms 2 region al_d
Created 8463 atoms
create_atoms 2 region al_w
Created 8416 atoms
create_atoms 2 region al_x
Created 16912 atoms
create_atoms 2 region al_y
Created 16901 atoms
create_atoms 2 region al_z
Created 8461 atoms

# pair potential

pair_style eam/alloy
pair_coeff * * Mishin-Ni-Al-2009.eam.alloy Ni Al

# reporting

thermo 100

dump 1 all atom 1000  thermalise.lammpstrj

# dynamics initialisation

delete_atoms region chomp_b compress no
Deleted 2102 atoms, new total = 408027
delete_atoms region chomp_c compress no
Deleted 2106 atoms, new total = 405921
delete_atoms region chomp_x compress no
Deleted 2100 atoms, new total = 403821
delete_atoms region chomp_y compress no
Deleted 2218 atoms, new total = 401603
delete_atoms overlap 2 all all
System init for delete_atoms ...
  update every 1 steps, delay 10 steps, check yes
Deleted 11801 atoms, new total = 389802
velocity all create 300 1 mom yes rot no

# simulation

# Thermalisation
fix   1 all npt temp 300 300 $(100*dt) iso 0.0 0.0 $(1000*dt) drag 0.0
fix   1 all npt temp 300 300 0.10000000000000000555 iso 0.0 0.0 $(1000*dt) drag 0.0
fix   1 all npt temp 300 300 0.10000000000000000555 iso 0.0 0.0 1 drag 0.0
run   30000

CITE-CITE-CITE-CITE-CITE-CITE-CITE-CITE-CITE-CITE-CITE-CITE-CITE

Your simulation uses code contributions which should be cited:

- GPU package (short-range, long-range and three-body potentials):

@Article{Brown11,
 author = {W. M. Brown, P. Wang, S. J. Plimpton, A. N. Tharrington},
 title = {Implementing Molecular Dynamics on Hybrid High Performance Computers - Short Range Forces},
 journal = {Comp.~Phys.~Comm.},
 year =    2011,
 volume =  182,
 pages =   {898--911}
}

@Article{Brown12,
 author = {W. M. Brown, A. Kohlmeyer, S. J. Plimpton, A. N. Tharrington},
 title = {Implementing Molecular Dynamics on Hybrid High Performance Computers - Particle-Particle Particle-Mesh},
 journal = {Comp.~Phys.~Comm.},
 year =    2012,
 volume =  183,
 pages =   {449--459}
}

@Article{Brown13,
 author = {W. M. Brown, Y. Masako},
 title = {Implementing Molecular Dynamics on Hybrid High Performance Computers â€“ Three-Body Potentials},
 journal = {Comp.~Phys.~Comm.},
 year =    2013,
 volume =  184,
 pages =   {2785--2793}
}

@Article{Trung15,
 author = {T. D. Nguyen, S. J. Plimpton},
 title = {Accelerating dissipative particle dynamics simulations for soft matter systems},
 journal = {Comput.~Mater.~Sci.},
 year =    2015,
 volume =  100,
 pages =   {173--180}
}

@Article{Trung17,
 author = {T. D. Nguyen},
 title = {GPU-accelerated Tersoff potentials for massively parallel Molecular Dynamics simulations},
 journal = {Comp.~Phys.~Comm.},
 year =    2017,
 volume =  212,
 pages =   {113--122}
}

@Article{Nikolskiy19,
 author = {V. Nikolskiy, V. Stegailov},
 title = {GPU acceleration of four-site water models in LAMMPS},
 journal = {Proceeding of the International Conference on Parallel Computing (ParCo 2019), Prague, Czech Republic},
 year =    2019
}

CITE-CITE-CITE-CITE-CITE-CITE-CITE-CITE-CITE-CITE-CITE-CITE-CITE

  update every 1 steps, delay 10 steps, check yes
Step          Temp          E_pair         E_mol          TotEng         Press          Volume
0   300           -1620793.1      0             -1605677.4     -15224.269      5140000
Averages over the last 151 of 301 rows, steps 15000 to 30000:
Temp E_pair E_mol TotEng Press Volume
300.044 -1.62288e+06 0 -1.60776e+06 -4.11447 5.06163e+06
Loop time of 1891.08 on 1 procs for 30000 steps with 389802 atoms

write_data void-nial09-thermalised.data
System init for write_data ...
